<?xml version="1.0" encoding="utf-8"?>
<!DOCTYPE population SYSTEM "http://www.matsim.org/files/dtd/population_v6.dtd">

<population>



<!-- ====================================================================== -->

	<person id="0">
		<plan score="-1013.3088330827097" selected="yes">
			<activity type="h" link="1071615" x="387464.1099379639" y="3738617.4083379526" end_time="06:42:00" >
			</activity>
			<leg mode="walk" dep_time="06:42:00" trav_time="00:00:00">
				<attributes>
					<attribute name="routingMode" class="java.lang.String">truck</attribute>
				</attributes>
				<route type="generic" start_link="1071615" end_link="1071615" trav_time="00:00:00" distance="7.566995918750763E-11"></route>
			</leg>
			<activity type="truck interaction" link="1071615" x="387464.10993796395" y="3738617.4083379526" start_time="06:42:00" end_time="06:42:00" >
			</activity>
			<leg mode="truck" dep_time="06:42:00" trav_time="00:07:18">
				<attributes>
					<attribute name="enterVehicleTime" class="java.lang.Double">24120.0</attribute>
					<attribute name="routingMode" class="java.lang.String">truck</attribute>
				</attributes>
				<route type="links" start_link="1071615" end_link="29745" trav_time="00:07:18" distance="5648.18832927764" vehicleRefId="null">1071615 1071617 1479484 1365643 356247 1479662 1479681 356243 356244 356245 1479650 353521 634644 634646 1479682 1329435 673836 634649 1473927 1474012 1473910 1473973 634662 634660 634658 634656 634654 1250392 1404163 500882 634651 843046 843048 48476 48498 48496 879889 36843 39928 1471257 12658 1276592 525648 528264 898362 54781 898326 921240 29743 29745</route>
			</leg>
			<activity type="truck interaction" link="29745" x="385166.9828161785" y="3736626.1172290947" start_time="06:49:18" end_time="06:49:18" >
			</activity>
			<leg mode="walk" dep_time="06:49:18" trav_time="00:00:00">
				<attributes>
					<attribute name="routingMode" class="java.lang.String">truck</attribute>
				</attributes>
				<route type="generic" start_link="29745" end_link="29745" trav_time="00:00:00" distance="0.0"></route>
			</leg>
			<activity type="h" link="29745" x="385166.9828161785" y="3736626.1172290947" start_time="06:49:18" end_time="07:17:04" >
			</activity>
			<leg mode="walk" dep_time="07:17:04" trav_time="00:00:00">
				<attributes>
					<attribute name="routingMode" class="java.lang.String">truck</attribute>
				</attributes>
				<route type="generic" start_link="29745" end_link="29745" trav_time="00:00:00" distance="0.0"></route>
			</leg>
			<activity type="truck interaction" link="29745" x="385166.9828161785" y="3736626.1172290947" start_time="07:17:04" end_time="07:17:04" >
			</activity>
			<leg mode="truck" dep_time="07:17:04" trav_time="00:09:43">
				<attributes>
					<attribute name="enterVehicleTime" class="java.lang.Double">26224.0</attribute>
					<attribute name="routingMode" class="java.lang.String">truck</attribute>
				</attributes>
				<route type="links" start_link="29745" end_link="622668" trav_time="00:09:43" distance="6814.105544529949" vehicleRefId="null">29745 29746 29744 921241 898327 54807 54805 54802 54800 118572 1483464 29738 29721 575090 602953 118205 118209 599923 385706 118208 118211 118213 118216 1046063 1259764 1259767 578217 1363763 444534 1280247 1345120 594313 152118 594312 594295 594213 1478176 19665 19624 19625 594299 1521685 594270 594271 594291 622668</route>
			</leg>
			<activity type="truck interaction" link="622668" x="389683.4312771741" y="3735047.189288168" start_time="07:26:47" end_time="07:26:47" >
			</activity>
			<leg mode="walk" dep_time="07:26:47" trav_time="00:00:00">
				<attributes>
					<attribute name="routingMode" class="java.lang.String">truck</attribute>
				</attributes>
				<route type="generic" start_link="622668" end_link="622668" trav_time="00:00:00" distance="0.0"></route>
			</leg>
			<activity type="h" link="622668" x="389683.4312771741" y="3735047.189288168" start_time="07:26:47" end_time="07:55:02" >
			</activity>
			<leg mode="walk" dep_time="07:55:02" trav_time="00:00:00">
				<attributes>
					<attribute name="routingMode" class="java.lang.String">truck</attribute>
				</attributes>
				<route type="generic" start_link="622668" end_link="622668" trav_time="00:00:00" distance="0.0"></route>
			</leg>
			<activity type="truck interaction" link="622668" x="389683.4312771741" y="3735047.189288168" start_time="07:55:02" end_time="07:55:02" >
			</activity>
			<leg mode="truck" dep_time="07:55:02" trav_time="00:07:38">
				<attributes>
					<attribute name="enterVehicleTime" class="java.lang.Double">28502.0</attribute>
					<attribute name="routingMode" class="java.lang.String">truck</attribute>
				</attributes>
				<route type="links" start_link="622668" end_link="540434" trav_time="00:07:38" distance="6370.407764658029" vehicleRefId="null">622668 594263 629740 594292 357900 594274 1273774 78105 301363 301364 1098265 494874 1288320 19734 19735 594222 19623 594296 461805 461785 594308 653908 140441 1296859 628476 54358 54359 206341 206342 584243 451411 941676 451409 47963 628481 428410 428407 47960 333491 584233 584234 584235 584236 451414 473134 195220 195211 601655 540434</route>
			</leg>
			<activity type="truck interaction" link="540434" x="388103.6283899014" y="3737980.950510864" start_time="08:02:40" end_time="08:02:40" >
			</activity>
			<leg mode="walk" dep_time="08:02:40" trav_time="00:00:00">
				<attributes>
					<attribute name="routingMode" class="java.lang.String">truck</attribute>
				</attributes>
				<route type="generic" start_link="540434" end_link="540434" trav_time="00:00:00" distance="0.0"></route>
			</leg>
			<activity type="h" link="540434" x="388103.6283899014" y="3737980.950510864" start_time="08:02:40" end_time="08:30:36" >
			</activity>
			<leg mode="walk" dep_time="08:30:36" trav_time="00:00:00">
				<attributes>
					<attribute name="routingMode" class="java.lang.String">truck</attribute>
				</attributes>
				<route type="generic" start_link="540434" end_link="540434" trav_time="00:00:00" distance="0.0"></route>
			</leg>
			<activity type="truck interaction" link="540434" x="388103.6283899014" y="3737980.950510864" start_time="08:30:36" end_time="08:30:36" >
			</activity>
			<leg mode="truck" dep_time="08:30:36" trav_time="00:21:07">
				<attributes>
					<attribute name="enterVehicleTime" class="java.lang.Double">30636.0</attribute>
					<attribute name="routingMode" class="java.lang.String">truck</attribute>
				</attributes>
				<route type="links" start_link="540434" end_link="270423" trav_time="00:21:07" distance="9700.467803170395" vehicleRefId="null">540434 58918 578204 578243 578276 578230 578228 578224 706032 561368 607395 607336 602956 118200 479285 479286 118199 118201 118204 949167 664806 948698 1363739 826765 948699 948706 1465981 1466631 434430 329830 419758 16144 405408 16141 16142 984579 704906 704908 1153155 620161 620162 620143 383400 270423</route>
			</leg>
			<activity type="truck interaction" link="270423" x="386510.2803729052" y="3734404.991208547" start_time="08:51:43" end_time="08:51:43" >
			</activity>
			<leg mode="walk" dep_time="08:51:43" trav_time="00:05:34">
				<attributes>
					<attribute name="routingMode" class="java.lang.String">truck</attribute>
				</attributes>
				<route type="generic" start_link="270423" end_link="270423" trav_time="00:05:34" distance="278.8416543531727"></route>
			</leg>
			<activity type="h" link="270423" x="386724.7586030185" y="3734402.4251249093" start_time="08:57:17" end_time="09:06:59" >
			</activity>
			<leg mode="walk" dep_time="09:06:59" trav_time="00:05:34">
				<attributes>
					<attribute name="routingMode" class="java.lang.String">truck</attribute>
				</attributes>
				<route type="generic" start_link="270423" end_link="270423" trav_time="00:05:34" distance="278.8416543531727"></route>
			</leg>
			<activity type="truck interaction" link="270423" x="386510.2803729052" y="3734404.991208547" start_time="09:12:33" end_time="09:12:33" >
			</activity>
			<leg mode="truck" dep_time="09:12:33" trav_time="00:23:27">
				<attributes>
					<attribute name="enterVehicleTime" class="java.lang.Double">33153.0</attribute>
					<attribute name="routingMode" class="java.lang.String">truck</attribute>
				</attributes>
				<route type="links" start_link="270423" end_link="1478175" trav_time="00:23:27" distance="11290.507663244007" vehicleRefId="null">270423 270424 383401 620144 620163 620160 1153156 704909 704907 704912 16138 16146 329829 1330673 1466664 1465991 207703 948605 137918 29721 575090 602953 118205 118209 599923 385706 118208 118211 118213 118216 1046063 1259764 1259767 578217 1363763 444534 1280247 1345120 594313 152118 594312 594295 594213 1478176 19665 19624 19625 594299 1521685 594270 594271 594291 622668 594263 357902 1478174 629772 1055011 1478175</route>
			</leg>
			<activity type="truck interaction" link="1478175" x="389798.49563798704" y="3735147.853326612" start_time="09:36:00" end_time="09:36:00" >
			</activity>
			<leg mode="walk" dep_time="09:36:00" trav_time="00:00:00">
				<attributes>
					<attribute name="routingMode" class="java.lang.String">truck</attribute>
				</attributes>
				<route type="generic" start_link="1478175" end_link="1478175" trav_time="00:00:00" distance="1.5133991837501526E-10"></route>
			</leg>
			<activity type="h" link="1478175" x="389798.49563798716" y="3735147.853326612" start_time="09:36:00" end_time="09:42:15" >
			</activity>
			<leg mode="walk" dep_time="09:42:15" trav_time="00:00:00">
				<attributes>
					<attribute name="routingMode" class="java.lang.String">truck</attribute>
				</attributes>
				<route type="generic" start_link="1478175" end_link="1478175" trav_time="00:00:00" distance="1.5133991837501526E-10"></route>
			</leg>
			<activity type="truck interaction" link="1478175" x="389798.49563798704" y="3735147.853326612" start_time="09:42:15" end_time="09:42:15" >
			</activity>
			<leg mode="truck" dep_time="09:42:15" trav_time="00:01:38">
				<attributes>
					<attribute name="enterVehicleTime" class="java.lang.Double">34935.0</attribute>
					<attribute name="routingMode" class="java.lang.String">truck</attribute>
				</attributes>
				<route type="links" start_link="1478175" end_link="594291" trav_time="00:01:38" distance="395.4255127245404" vehicleRefId="null">1478175 1055012 594288 594271 594291</route>
			</leg>
			<activity type="truck interaction" link="594291" x="389641.91484592593" y="3735084.392703762" start_time="09:43:53" end_time="09:43:53" >
			</activity>
			<leg mode="walk" dep_time="09:43:53" trav_time="00:00:00">
				<attributes>
					<attribute name="routingMode" class="java.lang.String">truck</attribute>
				</attributes>
				<route type="generic" start_link="594291" end_link="594291" trav_time="00:00:00" distance="0.0"></route>
			</leg>
			<activity type="h" link="594291" x="389641.91484592593" y="3735084.392703762" start_time="09:43:53" end_time="10:12:32" >
			</activity>
			<leg mode="walk" dep_time="10:12:32" trav_time="00:00:00">
				<attributes>
					<attribute name="routingMode" class="java.lang.String">truck</attribute>
				</attributes>
				<route type="generic" start_link="594291" end_link="594291" trav_time="00:00:00" distance="0.0"></route>
			</leg>
			<activity type="truck interaction" link="594291" x="389641.91484592593" y="3735084.392703762" start_time="10:12:32" end_time="10:12:32" >
			</activity>
			<leg mode="truck" dep_time="10:12:32" trav_time="00:03:49">
				<attributes>
					<attribute name="enterVehicleTime" class="java.lang.Double">36752.0</attribute>
					<attribute name="routingMode" class="java.lang.String">truck</attribute>
				</attributes>
				<route type="links" start_link="594291" end_link="594212" trav_time="00:03:49" distance="1502.0309720139255" vehicleRefId="null">594291 594292 357900 594274 1273774 78105 301363 301364 1098265 494874 1288320 19734 19735 594222 594208 594207 594212</route>
			</leg>
			<activity type="truck interaction" link="594212" x="388853.5274763364" y="3736003.523277572" start_time="10:16:21" end_time="10:16:21" >
			</activity>
			<leg mode="walk" dep_time="10:16:21" trav_time="00:00:02">
				<attributes>
					<attribute name="routingMode" class="java.lang.String">truck</attribute>
				</attributes>
				<route type="generic" start_link="594212" end_link="594212" trav_time="00:00:02" distance="2.2835717803009374"></route>
			</leg>
			<activity type="h" link="594212" x="388855.0106224459" y="3736002.582055513" start_time="10:16:23" end_time="10:44:33" >
			</activity>
			<leg mode="walk" dep_time="10:44:33" trav_time="00:00:02">
				<attributes>
					<attribute name="routingMode" class="java.lang.String">truck</attribute>
				</attributes>
				<route type="generic" start_link="594212" end_link="594212" trav_time="00:00:02" distance="2.2835717803009374"></route>
			</leg>
			<activity type="truck interaction" link="594212" x="388853.5274763364" y="3736003.523277572" start_time="10:44:35" end_time="10:44:35" >
			</activity>
			<leg mode="truck" dep_time="10:44:35" trav_time="00:02:39">
				<attributes>
					<attribute name="enterVehicleTime" class="java.lang.Double">38675.0</attribute>
					<attribute name="routingMode" class="java.lang.String">truck</attribute>
				</attributes>
				<route type="links" start_link="594212" end_link="506866" trav_time="00:02:39" distance="2301.4298875913382" vehicleRefId="null">594212 594211 15346 844413 594294 540450 594311 540449 202621 588482 589594 594275 629773 594204 594203 428437 19627 594269 1288110 594290 594273 494904 494903 494900 494902 494905 323948 506860 506866</route>
			</leg>
			<activity type="truck interaction" link="506866" x="388482.5308825697" y="3735737.7089778725" start_time="10:47:14" end_time="10:47:14" >
			</activity>
			<leg mode="walk" dep_time="10:47:14" trav_time="00:00:00">
				<attributes>
					<attribute name="routingMode" class="java.lang.String">truck</attribute>
				</attributes>
				<route type="generic" start_link="506866" end_link="506866" trav_time="00:00:00" distance="0.0"></route>
			</leg>
			<activity type="h" link="506866" x="388482.5308825697" y="3735737.7089778725" start_time="10:47:14" end_time="11:15:19" >
			</activity>
			<leg mode="walk" dep_time="11:15:19" trav_time="00:00:00">
				<attributes>
					<attribute name="routingMode" class="java.lang.String">truck</attribute>
				</attributes>
				<route type="generic" start_link="506866" end_link="506866" trav_time="00:00:00" distance="0.0"></route>
			</leg>
			<activity type="truck interaction" link="506866" x="388482.5308825697" y="3735737.7089778725" start_time="11:15:19" end_time="11:15:19" >
			</activity>
			<leg mode="truck" dep_time="11:15:19" trav_time="00:04:11">
				<attributes>
					<attribute name="enterVehicleTime" class="java.lang.Double">40519.0</attribute>
					<attribute name="routingMode" class="java.lang.String">truck</attribute>
				</attributes>
				<route type="links" start_link="506866" end_link="118200" trav_time="00:04:11" distance="4402.554522923163" vehicleRefId="null">506866 506867 506865 1280240 1280248 444535 1363764 578218 1259768 1259765 1046064 578211 1296862 578207 1162764 578273 607395 607336 602956 118200</route>
			</leg>
			<activity type="truck interaction" link="118200" x="387753.58166449354" y="3736992.2660527145" start_time="11:19:30" end_time="11:19:30" >
			</activity>
			<leg mode="walk" dep_time="11:19:30" trav_time="00:00:45">
				<attributes>
					<attribute name="routingMode" class="java.lang.String">truck</attribute>
				</attributes>
				<route type="generic" start_link="118200" end_link="118200" trav_time="00:00:45" distance="38.28575560612701"></route>
			</leg>
			<activity type="h" link="118200" x="387763.64054476353" y="3736964.586535688" start_time="11:20:15" end_time="11:47:41" >
			</activity>
			<leg mode="walk" dep_time="11:47:41" trav_time="00:00:45">
				<attributes>
					<attribute name="routingMode" class="java.lang.String">truck</attribute>
				</attributes>
				<route type="generic" start_link="118200" end_link="118200" trav_time="00:00:45" distance="38.28575560612701"></route>
			</leg>
			<activity type="truck interaction" link="118200" x="387753.58166449354" y="3736992.2660527145" start_time="11:48:26" end_time="11:48:26" >
			</activity>
			<leg mode="truck" dep_time="11:48:26" trav_time="00:05:21">
				<attributes>
					<attribute name="enterVehicleTime" class="java.lang.Double">42506.0</attribute>
					<attribute name="routingMode" class="java.lang.String">truck</attribute>
				</attributes>
				<route type="links" start_link="118200" end_link="578200" trav_time="00:05:21" distance="5203.5656503414" vehicleRefId="null">118200 479285 479286 118199 118201 118203 118205 118209 599923 385706 118208 118211 118213 118216 578211 1296862 578207 1162764 578273 561367 706031 578223 578227 578229 578275 578244 578205 578239 567437 491109 578232 578201 578200</route>
			</leg>
			<activity type="truck interaction" link="578200" x="388076.24717935955" y="3738121.774758377" start_time="11:53:47" end_time="11:53:47" >
			</activity>
			<leg mode="walk" dep_time="11:53:47" trav_time="00:00:00">
				<attributes>
					<attribute name="routingMode" class="java.lang.String">truck</attribute>
				</attributes>
				<route type="generic" start_link="578200" end_link="578200" trav_time="00:00:00" distance="0.0"></route>
			</leg>
			<activity type="h" link="578200" x="388076.24717935955" y="3738121.774758377" start_time="11:53:47" end_time="12:19:41" >
			</activity>
			<leg mode="walk" dep_time="12:19:41" trav_time="00:00:00">
				<attributes>
					<attribute name="routingMode" class="java.lang.String">truck</attribute>
				</attributes>
				<route type="generic" start_link="578200" end_link="578200" trav_time="00:00:00" distance="0.0"></route>
			</leg>
			<activity type="truck interaction" link="578200" x="388076.24717935955" y="3738121.774758377" start_time="12:19:41" end_time="12:19:41" >
			</activity>
			<leg mode="truck" dep_time="12:19:41" trav_time="00:05:07">
				<attributes>
					<attribute name="enterVehicleTime" class="java.lang.Double">44381.0</attribute>
					<attribute name="routingMode" class="java.lang.String">truck</attribute>
				</attributes>
				<route type="links" start_link="578200" end_link="594291" trav_time="00:05:07" distance="3888.628313339484" vehicleRefId="null">578200 578231 491108 567436 578240 578204 578243 578276 578230 578228 578224 706032 561368 578274 1162765 578206 1296861 578210 1046063 1259764 1259767 578217 1363763 444534 1280247 1345120 594313 152118 594312 594295 594213 1478176 19665 19624 19625 594299 1521685 594270 594271 594291</route>
			</leg>
			<activity type="truck interaction" link="594291" x="389641.91484592593" y="3735084.392703762" start_time="12:24:48" end_time="12:24:48" >
			</activity>
			<leg mode="walk" dep_time="12:24:48" trav_time="00:00:00">
				<attributes>
					<attribute name="routingMode" class="java.lang.String">truck</attribute>
				</attributes>
				<route type="generic" start_link="594291" end_link="594291" trav_time="00:00:00" distance="0.0"></route>
			</leg>
			<activity type="h" link="594291" x="389641.91484592593" y="3735084.392703762" start_time="12:24:48" end_time="12:55:23" >
			</activity>
			<leg mode="walk" dep_time="12:55:23" trav_time="00:00:00">
				<attributes>
					<attribute name="routingMode" class="java.lang.String">truck</attribute>
				</attributes>
				<route type="generic" start_link="594291" end_link="594291" trav_time="00:00:00" distance="0.0"></route>
			</leg>
			<activity type="truck interaction" link="594291" x="389641.91484592593" y="3735084.392703762" start_time="12:55:23" end_time="12:55:23" >
			</activity>
			<leg mode="truck" dep_time="12:55:23" trav_time="00:03:49">
				<attributes>
					<attribute name="enterVehicleTime" class="java.lang.Double">46523.0</attribute>
					<attribute name="routingMode" class="java.lang.String">truck</attribute>
				</attributes>
				<route type="links" start_link="594291" end_link="347787" trav_time="00:03:49" distance="1819.363209840398" vehicleRefId="null">594291 594292 357900 594274 1273774 78105 301363 56348 202701 56371 324406 347844 347787</route>
			</leg>
			<activity type="truck interaction" link="347787" x="389727.41794652515" y="3734893.9499439104" start_time="12:59:12" end_time="12:59:12" >
			</activity>
			<leg mode="walk" dep_time="12:59:12" trav_time="00:00:31">
				<attributes>
					<attribute name="routingMode" class="java.lang.String">truck</attribute>
				</attributes>
				<route type="generic" start_link="347787" end_link="347787" trav_time="00:00:31" distance="26.266628026776324"></route>
			</leg>
			<activity type="h" link="347787" x="389747.47795969166" y="3734896.3669413105" start_time="12:59:43" end_time="13:25:44" >
			</activity>
			<leg mode="walk" dep_time="13:25:44" trav_time="00:00:31">
				<attributes>
					<attribute name="routingMode" class="java.lang.String">truck</attribute>
				</attributes>
				<route type="generic" start_link="347787" end_link="347787" trav_time="00:00:31" distance="26.266628026776324"></route>
			</leg>
			<activity type="truck interaction" link="347787" x="389727.41794652515" y="3734893.9499439104" start_time="13:26:15" end_time="13:26:15" >
			</activity>
			<leg mode="truck" dep_time="13:26:15" trav_time="00:03:14">
				<attributes>
					<attribute name="enterVehicleTime" class="java.lang.Double">48375.0</attribute>
					<attribute name="routingMode" class="java.lang.String">truck</attribute>
				</attributes>
				<route type="links" start_link="347787" end_link="293176" trav_time="00:03:14" distance="2492.7976672711025" vehicleRefId="null">347787 347788 347845 324407 141047 202705 482700 1288702 347085 1288326 1288324 486094 1288322 859101 859102 761453 958319 958442 494904 494903 494900 494902 494905 323948 506860 506866 486096 293176</route>
			</leg>
			<activity type="truck interaction" link="293176" x="388655.43021814036" y="3735729.1705321567" start_time="13:29:29" end_time="13:29:29" >
			</activity>
			<leg mode="walk" dep_time="13:29:29" trav_time="00:00:00">
				<attributes>
					<attribute name="routingMode" class="java.lang.String">truck</attribute>
				</attributes>
				<route type="generic" start_link="293176" end_link="293176" trav_time="00:00:00" distance="0.0"></route>
			</leg>
			<activity type="h" link="293176" x="388655.43021814036" y="3735729.1705321567" start_time="13:29:29" end_time="13:58:02" >
			</activity>
			<leg mode="walk" dep_time="13:58:02" trav_time="00:00:00">
				<attributes>
					<attribute name="routingMode" class="java.lang.String">truck</attribute>
				</attributes>
				<route type="generic" start_link="293176" end_link="293176" trav_time="00:00:00" distance="0.0"></route>
			</leg>
			<activity type="truck interaction" link="293176" x="388655.43021814036" y="3735729.1705321567" start_time="13:58:02" end_time="13:58:02" >
			</activity>
			<leg mode="truck" dep_time="13:58:02" trav_time="00:04:52">
				<attributes>
					<attribute name="enterVehicleTime" class="java.lang.Double">50282.0</attribute>
					<attribute name="routingMode" class="java.lang.String">truck</attribute>
				</attributes>
				<route type="links" start_link="293176" end_link="1124068" trav_time="00:04:52" distance="4574.633308519895" vehicleRefId="null">293176 323949 323950 323951 494901 594289 761458 594293 594287 594298 594272 594301 594211 15346 15347 15348 15338 405819 540448 594210 130184 330414 540439 130190 540437 540441 540438 195338 55690 594267 868662 1478186 413661 413663 1504620 419245 419246 419238 628502 540428 195198 315632 195197 594304 594305 1479692 1479694 1479690 572345 1124066 1124068</route>
			</leg>
			<activity type="truck interaction" link="1124068" x="387314.964294329" y="3738620.394474701" start_time="14:02:54" end_time="14:02:54" >
			</activity>
			<leg mode="walk" dep_time="14:02:54" trav_time="00:00:00">
				<attributes>
					<attribute name="routingMode" class="java.lang.String">truck</attribute>
				</attributes>
				<route type="generic" start_link="1124068" end_link="1124068" trav_time="00:00:00" distance="0.0"></route>
			</leg>
			<activity type="h" link="1124068" x="387314.964294329" y="3738620.394474701" start_time="14:02:54" end_time="14:33:20" >
			</activity>
			<leg mode="walk" dep_time="14:33:20" trav_time="00:00:00">
				<attributes>
					<attribute name="routingMode" class="java.lang.String">truck</attribute>
				</attributes>
				<route type="generic" start_link="1124068" end_link="1124068" trav_time="00:00:00" distance="0.0"></route>
			</leg>
			<activity type="truck interaction" link="1124068" x="387314.964294329" y="3738620.394474701" start_time="14:33:20" end_time="14:33:20" >
			</activity>
			<leg mode="truck" dep_time="14:33:20" trav_time="00:01:43">
				<attributes>
					<attribute name="enterVehicleTime" class="java.lang.Double">52400.0</attribute>
					<attribute name="routingMode" class="java.lang.String">truck</attribute>
				</attributes>
				<route type="links" start_link="1124068" end_link="193481" trav_time="00:01:43" distance="978.7221199590019" vehicleRefId="null">1124068 194076 1071617 1479484 356240 1479668 356246 557440 356184 557438 356142 202527 202540 193482 193481</route>
			</leg>
			<activity type="truck interaction" link="193481" x="388081.8961370952" y="3738604.0683501847" start_time="14:35:03" end_time="14:35:03" >
			</activity>
			<leg mode="walk" dep_time="14:35:03" trav_time="00:00:00">
				<attributes>
					<attribute name="routingMode" class="java.lang.String">truck</attribute>
				</attributes>
				<route type="generic" start_link="193481" end_link="193481" trav_time="00:00:00" distance="0.0"></route>
			</leg>
			<activity type="h" link="193481" x="388081.8961370952" y="3738604.0683501847" start_time="14:35:03" end_time="15:04:37" >
			</activity>
			<leg mode="walk" dep_time="15:04:37" trav_time="00:00:00">
				<attributes>
					<attribute name="routingMode" class="java.lang.String">truck</attribute>
				</attributes>
				<route type="generic" start_link="193481" end_link="193481" trav_time="00:00:00" distance="0.0"></route>
			</leg>
			<activity type="truck interaction" link="193481" x="388081.8961370952" y="3738604.0683501847" start_time="15:04:37" end_time="15:04:37" >
			</activity>
			<leg mode="truck" dep_time="15:04:37" trav_time="00:03:33">
				<attributes>
					<attribute name="enterVehicleTime" class="java.lang.Double">54277.0</attribute>
					<attribute name="routingMode" class="java.lang.String">truck</attribute>
				</attributes>
				<route type="links" start_link="193481" end_link="494904" trav_time="00:03:33" distance="3729.589720202026" vehicleRefId="null">193481 764346 356211 356142 202527 594306 584236 451414 473134 602100 118197 394213 472936 110661 865390 594307 47149 47148 594313 152118 629779 958319 958442 494904</route>
			</leg>
			<activity type="truck interaction" link="494904" x="388776.1249852412" y="3735721.6421669004" start_time="15:08:10" end_time="15:08:10" >
			</activity>
			<leg mode="walk" dep_time="15:08:10" trav_time="00:00:00">
				<attributes>
					<attribute name="routingMode" class="java.lang.String">truck</attribute>
				</attributes>
				<route type="generic" start_link="494904" end_link="494904" trav_time="00:00:00" distance="1.5133991837501526E-10"></route>
			</leg>
			<activity type="h" link="494904" x="388776.12498524133" y="3735721.6421669004" start_time="15:08:10" end_time="15:39:34" >
			</activity>
			<leg mode="walk" dep_time="15:39:34" trav_time="00:00:00">
				<attributes>
					<attribute name="routingMode" class="java.lang.String">truck</attribute>
				</attributes>
				<route type="generic" start_link="494904" end_link="494904" trav_time="00:00:00" distance="1.5133991837501526E-10"></route>
			</leg>
			<activity type="truck interaction" link="494904" x="388776.1249852412" y="3735721.6421669004" start_time="15:39:34" end_time="15:39:34" >
			</activity>
			<leg mode="truck" dep_time="15:39:34" trav_time="00:04:51">
				<attributes>
					<attribute name="enterVehicleTime" class="java.lang.Double">56374.0</attribute>
					<attribute name="routingMode" class="java.lang.String">truck</attribute>
				</attributes>
				<route type="links" start_link="494904" end_link="1204369" trav_time="00:04:51" distance="5056.318133258605" vehicleRefId="null">494904 494903 494900 494902 494905 323948 506860 506865 1280240 1280248 444535 952 240148 953 310452 47154 140441 1296859 628476 54358 54359 206341 206342 584243 451411 941676 451409 47963 628481 428410 428407 351772 557439 356150 356171 557442 557441 356236 1479661 356247 1479662 1479681 356243 356244 356245 1479650 353521 1479685 1479687 1204369</route>
			</leg>
			<activity type="truck interaction" link="1204369" x="387144.41087681305" y="3738634.132917847" start_time="15:44:25" end_time="15:44:25" >
			</activity>
			<leg mode="walk" dep_time="15:44:25" trav_time="00:00:00">
				<attributes>
					<attribute name="routingMode" class="java.lang.String">truck</attribute>
				</attributes>
				<route type="generic" start_link="1204369" end_link="1204369" trav_time="00:00:00" distance="0.0"></route>
			</leg>
			<activity type="h" link="1204369" x="387144.41087681305" y="3738634.132917847" start_time="15:44:25" end_time="16:15:07" >
			</activity>
			<leg mode="walk" dep_time="16:15:07" trav_time="00:00:00">
				<attributes>
					<attribute name="routingMode" class="java.lang.String">truck</attribute>
				</attributes>
				<route type="generic" start_link="1204369" end_link="1204369" trav_time="00:00:00" distance="0.0"></route>
			</leg>
			<activity type="truck interaction" link="1204369" x="387144.41087681305" y="3738634.132917847" start_time="16:15:07" end_time="16:15:07" >
			</activity>
			<leg mode="truck" dep_time="16:15:07" trav_time="00:06:21">
				<attributes>
					<attribute name="enterVehicleTime" class="java.lang.Double">58507.0</attribute>